<?xml version="1.0" encoding="utf-8"?>
<!DOCTYPE population SYSTEM "http://www.matsim.org/files/dtd/population_v5.dtd"[]>
<population>
  <!-- ====================================================================== -->
  <person id="0">
    <plan selected="yes">
      <act type="home" x="84501.989058" y="447117.407376" end_time="09:00:00" />
      <leg mode="car"></leg>
      <act type="work" x="85289.78913283175" y="446472.36738199845" end_time="17:00:00" />
      <leg mode="car"></leg>
      <act type="home" x="84501.989058" y="447117.407376" />
    </plan>
  </person>
  <!-- ====================================================================== -->
  <person id="1">
    <plan selected="yes">
      <act type="home" x="84501.989058" y="447117.407376" end_time="09:00:00" />
      <leg mode="car"></leg>
      <act type="work" x="85289.78913283175" y="446472.36738199845" end_time="17:00:00" />
      <leg mode="car"></leg>
      <act type="home" x="84501.989058" y="447117.407376" />
    </plan>
  </person>
  <!-- ====================================================================== -->
  <person id="2">
    <plan selected="yes">
      <act type="home" x="84501.989058" y="447117.407376" end_time="09:00:00" />
      <leg mode="car"></leg>
      <act type="work" x="85289.78913283175" y="446472.36738199845" end_time="17:00:00" />
      <leg mode="car"></leg>
      <act type="home" x="84501.989058" y="447117.407376" />
    </plan>
  </person>
  <!-- ====================================================================== -->
  <person id="3">
    <plan selected="yes">
      <act type="home" x="84501.989058" y="447117.407376" end_time="09:00:00" />
      <leg mode="car"></leg>
      <act type="work" x="85289.78913283175" y="446472.36738199845" end_time="17:00:00" />
      <leg mode="car"></leg>
      <act type="home" x="84501.989058" y="447117.407376" />
    </plan>
  </person>
  <!-- ====================================================================== -->
  <person id="4">
    <plan selected="yes">
      <act type="home" x="84501.989058" y="447117.407376" end_time="09:30:00" />
      <leg mode="car"></leg>
      <act type="work" x="85289.78913283175" y="446472.36738199845" end_time="17:00:00" />
      <leg mode="car"></leg>
      <act type="home" x="84501.989058" y="447117.407376" />
    </plan>
  </person>
  <!-- ====================================================================== -->
  <person id="5">
    <plan selected="yes">
      <act type="home" x="84501.989058" y="447117.407376" end_time="09:30:00" />
      <leg mode="car"></leg>
      <act type="work" x="85289.78913283175" y="446472.36738199845" end_time="17:00:00" />
      <leg mode="car"></leg>
      <act type="home" x="84501.989058" y="447117.407376" />
    </plan>
  </person>
  <!-- ====================================================================== -->
  <person id="6">
    <plan selected="yes">
      <act type="home" x="84501.989058" y="447117.407376" end_time="09:30:00" />
      <leg mode="car"></leg>
      <act type="work" x="85289.78913283175" y="446472.36738199845" end_time="17:00:00" />
      <leg mode="car"></leg>
      <act type="home" x="84501.989058" y="447117.407376" />
    </plan>
  </person>
  <!-- ====================================================================== -->
  <person id="7">
    <plan selected="yes">
      <act type="home" x="84501.989058" y="447117.407376" end_time="09:30:00" />
      <leg mode="car"></leg>
      <act type="work" x="85289.78913283175" y="446472.36738199845" end_time="17:00:00" />
      <leg mode="car"></leg>
      <act type="home" x="84501.989058" y="447117.407376" />
    </plan>
  </person>
  <!-- ====================================================================== -->
  <person id="8">
    <plan selected="yes">
      <act type="home" x="84501.989058" y="447117.407376" end_time="11:30:00" />
      <leg mode="car"></leg>
      <act type="work" x="85289.78913283175" y="446472.36738199845" end_time="17:00:00" />
      <leg mode="car"></leg>
      <act type="leisure" x="84017.19408962865" y="447584.969598629" end_time="23:00:00" />
      <leg mode="car"></leg>
      <act type="home" x="84501.989058" y="447117.407376" />
    </plan>
  </person>
  <!-- ====================================================================== -->
  <person id="9">
    <plan selected="yes">
      <act type="home" x="84501.989058" y="447117.407376" end_time="11:30:00" />
      <leg mode="car"></leg>
      <act type="work" x="85289.78913283175" y="446472.36738199845" end_time="17:00:00" />
      <leg mode="car"></leg>
      <act type="leisure" x="84017.19408962865" y="447584.969598629" end_time="23:00:00" />
      <leg mode="car"></leg>
      <act type="home" x="84501.989058" y="447117.407376" />
    </plan>
  </person>
  <!-- ====================================================================== -->
  <person id="10">
    <plan selected="yes">
      <act type="home" x="84501.989058" y="447117.407376" end_time="11:30:00" />
      <leg mode="car"></leg>
      <act type="work" x="85289.78913283175" y="446472.36738199845" end_time="17:00:00" />
      <leg mode="car"></leg>
      <act type="leisure" x="84017.19408962865" y="447584.969598629" end_time="23:00:00" />
      <leg mode="car"></leg>
      <act type="home" x="84501.989058" y="447117.407376" />
    </plan>
  </person>
  <!-- ====================================================================== -->
  <person id="11">
    <plan selected="yes">
      <act type="home" x="84501.989058" y="447117.407376" end_time="11:30:00" />
      <leg mode="car"></leg>
      <act type="work" x="85289.78913283175" y="446472.36738199845" end_time="17:00:00" />
      <leg mode="car"></leg>
      <act type="leisure" x="84017.19408962865" y="447584.969598629" end_time="23:00:00" />
      <leg mode="car"></leg>
      <act type="home" x="84501.989058" y="447117.407376" />
    </plan>
  </person>
  <!-- ====================================================================== -->
  <!-- ====================================================================== -->
  <person id="12">
    <plan selected="yes">
      <act type="home" x="84501.989058" y="447117.407376" end_time="09:00:00" />
      <leg mode="car"></leg>
      <act type="work" x="85289.78913283175" y="446472.36738199845" end_time="17:00:00" />
      <leg mode="car"></leg>
      <act type="home" x="84501.989058" y="447117.407376" />
    </plan>
  </person>
  <!-- ====================================================================== -->
  <person id="13">
    <plan selected="yes">
      <act type="home" x="84501.989058" y="447117.407376" end_time="09:00:00" />
      <leg mode="car"></leg>
      <act type="work" x="85289.78913283175" y="446472.36738199845" end_time="17:00:00" />
      <leg mode="car"></leg>
      <act type="home" x="84501.989058" y="447117.407376" />
    </plan>
  </person>
  <!-- ====================================================================== -->
  <person id="14">
    <plan selected="yes">
      <act type="home" x="84501.989058" y="447117.407376" end_time="09:00:00" />
      <leg mode="car"></leg>
      <act type="work" x="85289.78913283175" y="446472.36738199845" end_time="17:00:00" />
      <leg mode="car"></leg>
      <act type="home" x="84501.989058" y="447117.407376" />
    </plan>
  </person>
  <!-- ====================================================================== -->
  <person id="15">
    <plan selected="yes">
      <act type="home" x="84501.989058" y="447117.407376" end_time="09:00:00" />
      <leg mode="car"></leg>
      <act type="work" x="85289.78913283175" y="446472.36738199845" end_time="17:00:00" />
      <leg mode="car"></leg>
      <act type="home" x="84501.989058" y="447117.407376" />
    </plan>
  </person>
  <!-- ====================================================================== -->
  <person id="16">
    <plan selected="yes">
      <act type="home" x="84501.989058" y="447117.407376" end_time="09:00:00" />
      <leg mode="car"></leg>
      <act type="work" x="85289.78913283175" y="446472.36738199845" end_time="17:00:00" />
      <leg mode="car"></leg>
      <act type="home" x="84501.989058" y="447117.407376" />
    </plan>
  </person>
  <!-- ====================================================================== -->
  <person id="17">
    <plan selected="yes">
      <act type="home" x="84501.989058" y="447117.407376" end_time="09:00:00" />
      <leg mode="car"></leg>
      <act type="work" x="85289.78913283175" y="446472.36738199845" end_time="17:00:00" />
      <leg mode="car"></leg>
      <act type="home" x="84501.989058" y="447117.407376" />
    </plan>
  </person>
  <!-- ====================================================================== -->
  <person id="18">
    <plan selected="yes">
      <act type="home" x="83681.57336" y="447062.531685" end_time="09:00:00" />
      <leg mode="car"></leg>
      <act type="work" x="85936.856275" y="448257.48565" end_time="17:00:00" />
      <leg mode="car"></leg>
      <act type="home" x="83681.57336" y="447062.531685" />
    </plan>
  </person>
  <!-- ====================================================================== -->
  <person id="19">
    <plan selected="yes">
      <act type="home" x="83681.57336" y="447062.531685" end_time="09:00:00" />
      <leg mode="car"></leg>
      <act type="work" x="85936.856275" y="448257.48565" end_time="17:00:00" />
      <leg mode="car"></leg>
      <act type="home" x="83681.57336" y="447062.531685" />
    </plan>
  </person>
  <!-- ====================================================================== -->
  <person id="20">
    <plan selected="yes">
      <act type="home" x="85936.856275" y="448257.48565" end_time="09:00:00" />
      <leg mode="car"></leg>
      <act type="work" x="83681.57336" y="447062.531685" end_time="17:00:00" />
      <leg mode="car"></leg>
      <act type="home" x="85936.856275" y="448257.48565" />
    </plan>
  </person>
</population>